matpower/matpower-converter/src/test/resources/case14.xiidm
<?xml version="1.0" encoding="UTF-8"?>
<iidm:network xmlns:iidm="http://www.powsybl.org/schema/iidm/1_2" id="case14" caseDate="2020-01-01T00:00:00.000Z" forecastDistance="0" sourceFormat="MATPOWER">
    <iidm:substation id="S6">
        <iidm:voltageLevel id="VL1" nominalV="1.0" topologyKind="BUS_BREAKER">
            <iidm:busBreakerTopology>
                <iidm:bus id="B1" v="1.06" angle="0.0"/>
            </iidm:busBreakerTopology>
            <iidm:generator id="G1-0" energySource="OTHER" minP="0.0" maxP="332.4" voltageRegulatorOn="true" targetP="232.4" targetV="1.06" targetQ="-16.9" bus="B1" connectableBus="B1">
                <iidm:minMaxReactiveLimits minQ="0.0" maxQ="10.0"/>
            </iidm:generator>
        </iidm:voltageLevel>
    </iidm:substation>
    <iidm:substation id="S8">
        <iidm:voltageLevel id="VL2" nominalV="1.0" topologyKind="BUS_BREAKER">
            <iidm:busBreakerTopology>
                <iidm:bus id="B2" v="1.045" angle="-4.98"/>
            </iidm:busBreakerTopology>
            <iidm:generator id="G2-0" energySource="OTHER" minP="0.0" maxP="140.0" voltageRegulatorOn="true" targetP="40.0" targetV="1.045" targetQ="42.4" bus="B2" connectableBus="B2">
                <iidm:minMaxReactiveLimits minQ="-40.0" maxQ="50.0"/>
            </iidm:generator>
            <iidm:load id="B2-L" loadType="UNDEFINED" p0="21.7" q0="12.7" bus="B2" connectableBus="B2"/>
        </iidm:voltageLevel>
    </iidm:substation>
    <iidm:substation id="S7">
        <iidm:voltageLevel id="VL3" nominalV="1.0" topologyKind="BUS_BREAKER">
            <iidm:busBreakerTopology>
                <iidm:bus id="B3" v="1.01" angle="-12.72"/>
            </iidm:busBreakerTopology>
            <iidm:generator id="G3-0" energySource="OTHER" minP="0.0" maxP="100.0" voltageRegulatorOn="true" targetP="0.0" targetV="1.01" targetQ="23.4" bus="B3" connectableBus="B3">
                <iidm:minMaxReactiveLimits minQ="0.0" maxQ="40.0"/>
            </iidm:generator>
            <iidm:load id="B3-L" loadType="UNDEFINED" p0="94.2" q0="19.0" bus="B3" connectableBus="B3"/>
        </iidm:voltageLevel>
    </iidm:substation>
    <iidm:substation id="S1">
        <iidm:voltageLevel id="VL4" nominalV="1.0" topologyKind="BUS_BREAKER">
            <iidm:busBreakerTopology>
                <iidm:bus id="B4" v="1.019" angle="-10.33"/>
            </iidm:busBreakerTopology>
            <iidm:load id="B4-L" loadType="UNDEFINED" p0="47.8" q0="-3.9" bus="B4" connectableBus="B4"/>
        </iidm:voltageLevel>
        <iidm:voltageLevel id="VL7" nominalV="1.0" topologyKind="BUS_BREAKER">
            <iidm:busBreakerTopology>
                <iidm:bus id="B7" v="1.062" angle="-13.37"/>
            </iidm:busBreakerTopology>
        </iidm:voltageLevel>
        <iidm:voltageLevel id="VL9" nominalV="1.0" topologyKind="BUS_BREAKER">
            <iidm:busBreakerTopology>
                <iidm:bus id="B9" v="1.056" angle="-14.94"/>
            </iidm:busBreakerTopology>
            <iidm:load id="B9-L" loadType="UNDEFINED" p0="29.5" q0="16.6" bus="B9" connectableBus="B9"/>
            <iidm:linearShunt id="B9-SH" bPerSection="19.0" maximumSectionCount="1" currentSectionCount="1" voltageRegulatorOn="false" bus="B9" connectableBus="B9"/>
        </iidm:voltageLevel>
        <iidm:twoWindingsTransformer id="T4-7-1" r="0.0" x="0.0020912" g="0.0" b="0.0" ratedU1="0.978" ratedU2="1.0" bus1="B4" connectableBus1="B4" voltageLevelId1="VL4" bus2="B7" connectableBus2="B7" voltageLevelId2="VL7"/>
        <iidm:twoWindingsTransformer id="T4-9-1" r="0.0" x="0.0055618" g="0.0" b="0.0" ratedU1="0.969" ratedU2="1.0" bus1="B4" connectableBus1="B4" voltageLevelId1="VL4" bus2="B9" connectableBus2="B9" voltageLevelId2="VL9"/>
    </iidm:substation>
    <iidm:substation id="S2">
        <iidm:voltageLevel id="VL5" nominalV="1.0" topologyKind="BUS_BREAKER">
            <iidm:busBreakerTopology>
                <iidm:bus id="B5" v="1.02" angle="-8.78"/>
            </iidm:busBreakerTopology>
            <iidm:load id="B5-L" loadType="UNDEFINED" p0="7.6" q0="1.6" bus="B5" connectableBus="B5"/>
        </iidm:voltageLevel>
        <iidm:voltageLevel id="VL6" nominalV="1.0" topologyKind="BUS_BREAKER">
            <iidm:busBreakerTopology>
                <iidm:bus id="B6" v="1.07" angle="-14.22"/>
            </iidm:busBreakerTopology>
            <iidm:generator id="G6-0" energySource="OTHER" minP="0.0" maxP="100.0" voltageRegulatorOn="true" targetP="0.0" targetV="1.07" targetQ="12.2" bus="B6" connectableBus="B6">
                <iidm:minMaxReactiveLimits minQ="-6.0" maxQ="24.0"/>
            </iidm:generator>
            <iidm:load id="B6-L" loadType="UNDEFINED" p0="11.2" q0="7.5" bus="B6" connectableBus="B6"/>
        </iidm:voltageLevel>
        <iidm:twoWindingsTransformer id="T5-6-1" r="0.0" x="0.0025202000000000002" g="0.0" b="0.0" ratedU1="0.932" ratedU2="1.0" bus1="B5" connectableBus1="B5" voltageLevelId1="VL5" bus2="B6" connectableBus2="B6" voltageLevelId2="VL6"/>
    </iidm:substation>
    <iidm:substation id="S3">
        <iidm:voltageLevel id="VL8" nominalV="1.0" topologyKind="BUS_BREAKER">
            <iidm:busBreakerTopology>
                <iidm:bus id="B8" v="1.09" angle="-13.36"/>
            </iidm:busBreakerTopology>
            <iidm:generator id="G8-0" energySource="OTHER" minP="0.0" maxP="100.0" voltageRegulatorOn="true" targetP="0.0" targetV="1.09" targetQ="17.4" bus="B8" connectableBus="B8">
                <iidm:minMaxReactiveLimits minQ="-6.0" maxQ="24.0"/>
            </iidm:generator>
        </iidm:voltageLevel>
    </iidm:substation>
    <iidm:substation id="S9">
        <iidm:voltageLevel id="VL10" nominalV="1.0" topologyKind="BUS_BREAKER">
            <iidm:busBreakerTopology>
                <iidm:bus id="B10" v="1.051" angle="-15.1"/>
            </iidm:busBreakerTopology>
            <iidm:load id="B10-L" loadType="UNDEFINED" p0="9.0" q0="5.8" bus="B10" connectableBus="B10"/>
        </iidm:voltageLevel>
    </iidm:substation>
    <iidm:substation id="S10">
        <iidm:voltageLevel id="VL11" nominalV="1.0" topologyKind="BUS_BREAKER">
            <iidm:busBreakerTopology>
                <iidm:bus id="B11" v="1.057" angle="-14.79"/>
            </iidm:busBreakerTopology>
            <iidm:load id="B11-L" loadType="UNDEFINED" p0="3.5" q0="1.8" bus="B11" connectableBus="B11"/>
        </iidm:voltageLevel>
    </iidm:substation>
    <iidm:substation id="S11">
        <iidm:voltageLevel id="VL12" nominalV="1.0" topologyKind="BUS_BREAKER">
            <iidm:busBreakerTopology>
                <iidm:bus id="B12" v="1.055" angle="-15.07"/>
            </iidm:busBreakerTopology>
            <iidm:load id="B12-L" loadType="UNDEFINED" p0="6.1" q0="1.6" bus="B12" connectableBus="B12"/>
        </iidm:voltageLevel>
    </iidm:substation>
    <iidm:substation id="S4">
        <iidm:voltageLevel id="VL13" nominalV="1.0" topologyKind="BUS_BREAKER">
            <iidm:busBreakerTopology>
                <iidm:bus id="B13" v="1.05" angle="-15.16"/>
            </iidm:busBreakerTopology>
            <iidm:load id="B13-L" loadType="UNDEFINED" p0="13.5" q0="5.8" bus="B13" connectableBus="B13"/>
        </iidm:voltageLevel>
    </iidm:substation>
    <iidm:substation id="S5">
        <iidm:voltageLevel id="VL14" nominalV="1.0" topologyKind="BUS_BREAKER">
            <iidm:busBreakerTopology>
                <iidm:bus id="B14" v="1.036" angle="-16.04"/>
            </iidm:busBreakerTopology>
            <iidm:load id="B14-L" loadType="UNDEFINED" p0="14.9" q0="5.0" bus="B14" connectableBus="B14"/>
        </iidm:voltageLevel>
    </iidm:substation>
    <iidm:line id="L1-2-1" r="1.9380000000000002E-4" x="5.917E-4" g1="0.0" b1="2.64" g2="0.0" b2="2.64" bus1="B1" connectableBus1="B1" voltageLevelId1="VL1" bus2="B2" connectableBus2="B2" voltageLevelId2="VL2"/>
    <iidm:line id="L1-5-1" r="5.403000000000001E-4" x="0.0022304" g1="0.0" b1="2.46" g2="0.0" b2="2.46" bus1="B1" connectableBus1="B1" voltageLevelId1="VL1" bus2="B5" connectableBus2="B5" voltageLevelId2="VL5"/>
    <iidm:line id="L2-3-1" r="4.699E-4" x="0.0019797" g1="0.0" b1="2.19" g2="0.0" b2="2.19" bus1="B2" connectableBus1="B2" voltageLevelId1="VL2" bus2="B3" connectableBus2="B3" voltageLevelId2="VL3"/>
    <iidm:line id="L2-4-1" r="5.811000000000001E-4" x="0.0017632000000000001" g1="0.0" b1="1.7000000000000002" g2="0.0" b2="1.7000000000000002" bus1="B2" connectableBus1="B2" voltageLevelId1="VL2" bus2="B4" connectableBus2="B4" voltageLevelId2="VL4"/>
    <iidm:line id="L2-5-1" r="5.695E-4" x="0.0017388000000000002" g1="0.0" b1="1.73" g2="0.0" b2="1.73" bus1="B2" connectableBus1="B2" voltageLevelId1="VL2" bus2="B5" connectableBus2="B5" voltageLevelId2="VL5"/>
    <iidm:line id="L3-4-1" r="6.701E-4" x="0.0017102999999999999" g1="0.0" b1="0.64" g2="0.0" b2="0.64" bus1="B3" connectableBus1="B3" voltageLevelId1="VL3" bus2="B4" connectableBus2="B4" voltageLevelId2="VL4"/>
    <iidm:line id="L4-5-1" r="1.3350000000000002E-4" x="4.2110000000000004E-4" g1="0.0" b1="0.0" g2="0.0" b2="0.0" bus1="B4" connectableBus1="B4" voltageLevelId1="VL4" bus2="B5" connectableBus2="B5" voltageLevelId2="VL5"/>
    <iidm:line id="L6-11-1" r="9.498E-4" x="0.001989" g1="0.0" b1="0.0" g2="0.0" b2="0.0" bus1="B6" connectableBus1="B6" voltageLevelId1="VL6" bus2="B11" connectableBus2="B11" voltageLevelId2="VL11"/>
    <iidm:line id="L6-12-1" r="0.0012291000000000001" x="0.0025581" g1="0.0" b1="0.0" g2="0.0" b2="0.0" bus1="B6" connectableBus1="B6" voltageLevelId1="VL6" bus2="B12" connectableBus2="B12" voltageLevelId2="VL12"/>
    <iidm:line id="L6-13-1" r="6.615E-4" x="0.0013027" g1="0.0" b1="0.0" g2="0.0" b2="0.0" bus1="B6" connectableBus1="B6" voltageLevelId1="VL6" bus2="B13" connectableBus2="B13" voltageLevelId2="VL13"/>
    <iidm:line id="L7-8-1" r="0.0" x="0.0017615" g1="0.0" b1="0.0" g2="0.0" b2="0.0" bus1="B7" connectableBus1="B7" voltageLevelId1="VL7" bus2="B8" connectableBus2="B8" voltageLevelId2="VL8"/>
    <iidm:line id="L7-9-1" r="0.0" x="0.0011001" g1="0.0" b1="0.0" g2="0.0" b2="0.0" bus1="B7" connectableBus1="B7" voltageLevelId1="VL7" bus2="B9" connectableBus2="B9" voltageLevelId2="VL9"/>
    <iidm:line id="L9-10-1" r="3.181E-4" x="8.45E-4" g1="0.0" b1="0.0" g2="0.0" b2="0.0" bus1="B9" connectableBus1="B9" voltageLevelId1="VL9" bus2="B10" connectableBus2="B10" voltageLevelId2="VL10"/>
    <iidm:line id="L9-14-1" r="0.0012711" x="0.0027038" g1="0.0" b1="0.0" g2="0.0" b2="0.0" bus1="B9" connectableBus1="B9" voltageLevelId1="VL9" bus2="B14" connectableBus2="B14" voltageLevelId2="VL14"/>
    <iidm:line id="L10-11-1" r="8.205E-4" x="0.0019207" g1="0.0" b1="0.0" g2="0.0" b2="0.0" bus1="B10" connectableBus1="B10" voltageLevelId1="VL10" bus2="B11" connectableBus2="B11" voltageLevelId2="VL11"/>
    <iidm:line id="L12-13-1" r="0.0022092" x="0.0019988000000000002" g1="0.0" b1="0.0" g2="0.0" b2="0.0" bus1="B12" connectableBus1="B12" voltageLevelId1="VL12" bus2="B13" connectableBus2="B13" voltageLevelId2="VL13"/>
    <iidm:line id="L13-14-1" r="0.0017093" x="0.0034802" g1="0.0" b1="0.0" g2="0.0" b2="0.0" bus1="B13" connectableBus1="B13" voltageLevelId1="VL13" bus2="B14" connectableBus2="B14" voltageLevelId2="VL14"/>
</iidm:network>
